%mem=145gb
%nproc=40
#p rhf/gen test neo=gen gfinput guess=print 
# 
iop33(3=2,4=2,5=2) iop(5/73=1,5/81=0) nosymm

Protonated Water Tetramer, Zundel Isomer

1,1
H         0.0000000000    0.0000000000    1.0383508319
H        -1.7366488846    0.1412413500    0.2551423806
H        -1.4249868270    1.0201853341    1.5773141537
O        -1.1779577834    0.2274997859    1.0866536941
H         1.7366488370   -0.1412415894    0.2551423417
H         1.4249868650   -1.0201852082    1.5773140209
O         1.1779577348   -0.2274996546    1.0866536673
H        -3.3434815894   -0.7365730750   -1.0484252942
H        -2.8116942657    0.5507786311   -1.7230152191
O        -2.6134232760   -0.1070964774   -1.0475037889
H         3.3434816409    0.7365727808   -1.0484253898
H         2.8116944118   -0.5507783304   -1.7230152240
O         2.6134231370    0.1070964521   -1.0475036143

 H     0
 S    1   1.00
       3.258000D-01           1.000000D+00
 S    5   1.00
       3.387000D+01           6.068000D-03
       5.095000D+00           4.530800D-02
       1.159000D+00           2.028220D-01
       3.258000D-01           5.039030D-01
       1.027000D-01           3.834210D-01
 S    1   1.00
       1.027000D-01           1.000000D+00
 P    1   1.00
       1.407000D+00           1.000000D+00
 P    1   1.00
       3.880000D-01           1.000000D+00
 D    1   1.00
       1.057000D+00           1.0000000
 ****
 O     0
 S    10   1.00
       1.533000D+04           5.080000D-04
       2.299000D+03           3.929000D-03
       5.224000D+02           2.024300D-02
       1.473000D+02           7.918100D-02
       4.755000D+01           2.306870D-01
       1.676000D+01           4.331180D-01
       6.207000D+00           3.502600D-01
       1.752000D+00           4.272800D-02
       6.882000D-01          -8.154000D-03
       2.384000D-01           2.381000D-03
 S    1   1.00
       1.752000D+00           1.000000D+00
 S    10   1.00
       1.533000D+04          -1.150000D-04
       2.299000D+03          -8.950000D-04
       5.224000D+02          -4.636000D-03
       1.473000D+02          -1.872400D-02
       4.755000D+01          -5.846300D-02
       1.676000D+01          -1.364630D-01
       6.207000D+00          -1.757400D-01
       1.752000D+00           1.609340D-01
       6.882000D-01           6.034180D-01
       2.384000D-01           3.787650D-01
 S    1   1.00
       2.384000D-01           1.000000D+00
 S    1   1.00
       0.0737600              1.0000000
 P    1   1.00
       7.156000D-01           1.000000D+00
 P    5   1.00
       3.446000D+01           1.592800D-02
       7.749000D+00           9.974000D-02
       2.280000D+00           3.104920D-01
       7.156000D-01           4.910260D-01
       2.140000D-01           3.363370D-01
 P    1   1.00
       2.140000D-01           1.000000D+00
 P    1   1.00
       0.0597400              1.0000000
 D    1   1.00
       2.314000D+00           1.000000D+00
 D    1   1.00
       6.450000D-01           1.000000D+00
 D    1   1.00
       0.2140000              1.0000000
 F    1   1.00
       1.428000D+00           1.0000000
 F    1   1.00
       0.5000000              1.0000000
 ****

      1 0
 S   1   1.00
     31.997      1.000000
 S   1   1.00
     16.010      1.000000
 S   1   1.00
     8.734      1.000000
 S   1   1.00
     1.957       1.000000
 P   1   1.00
     24.028      1.000000
 P   1   1.00
     13.795      1.000000
 P   1   1.00
     9.438       1.000000
 D   1   1.00
     19.016      1.000000
 D   1   1.00
     10.524       1.000000
 ****
      2 0
 S   1   1.00
     31.997      1.000000
 S   1   1.00
     16.010      1.000000
 S   1   1.00
     8.734      1.000000
 S   1   1.00
     1.957       1.000000
 P   1   1.00
     24.028      1.000000
 P   1   1.00
     13.795      1.000000
 P   1   1.00
     9.438       1.000000
 D   1   1.00
     19.016      1.000000
 D   1   1.00
     10.524       1.000000
 ****
      3 0
 S   1   1.00
     31.997      1.000000
 S   1   1.00
     16.010      1.000000
 S   1   1.00
     8.734      1.000000
 S   1   1.00
     1.957       1.000000
 P   1   1.00
     24.028      1.000000
 P   1   1.00
     13.795      1.000000
 P   1   1.00
     9.438       1.000000
 D   1   1.00
     19.016      1.000000
 D   1   1.00
     10.524       1.000000
 ****
      5 0
 S   1   1.00
     31.997      1.000000
 S   1   1.00
     16.010      1.000000
 S   1   1.00
     8.734      1.000000
 S   1   1.00
     1.957       1.000000
 P   1   1.00
     24.028      1.000000
 P   1   1.00
     13.795      1.000000
 P   1   1.00
     9.438       1.000000
 D   1   1.00
     19.016      1.000000
 D   1   1.00
     10.524       1.000000
 ****
      6 0
 S   1   1.00
     31.997      1.000000
 S   1   1.00
     16.010      1.000000
 S   1   1.00
     8.734      1.000000
 S   1   1.00
     1.957       1.000000
 P   1   1.00
     24.028      1.000000
 P   1   1.00
     13.795      1.000000
 P   1   1.00
     9.438       1.000000
 D   1   1.00
     19.016      1.000000
 D   1   1.00
     10.524       1.000000
 ****
      8 0
 S   1   1.00
     31.997      1.000000
 S   1   1.00
     16.010      1.000000
 S   1   1.00
     8.734      1.000000
 S   1   1.00
     1.957       1.000000
 P   1   1.00
     24.028      1.000000
 P   1   1.00
     13.795      1.000000
 P   1   1.00
     9.438       1.000000
 D   1   1.00
     19.016      1.000000
 D   1   1.00
     10.524       1.000000
 ****
      9 0
 S   1   1.00
     31.997      1.000000
 S   1   1.00
     16.010      1.000000
 S   1   1.00
     8.734      1.000000
 S   1   1.00
     1.957       1.000000
 P   1   1.00
     24.028      1.000000
 P   1   1.00
     13.795      1.000000
 P   1   1.00
     9.438       1.000000
 D   1   1.00
     19.016      1.000000
 D   1   1.00
     10.524       1.000000
 ****
      11 0
 S   1   1.00
     31.997      1.000000
 S   1   1.00
     16.010      1.000000
 S   1   1.00
     8.734      1.000000
 S   1   1.00
     1.957       1.000000
 P   1   1.00
     24.028      1.000000
 P   1   1.00
     13.795      1.000000
 P   1   1.00
     9.438       1.000000
 D   1   1.00
     19.016      1.000000
 D   1   1.00
     10.524       1.000000
 ****
      12 0
 S   1   1.00
     31.997      1.000000
 S   1   1.00
     16.010      1.000000
 S   1   1.00
     8.734      1.000000
 S   1   1.00
     1.957       1.000000
 P   1   1.00
     24.028      1.000000
 P   1   1.00
     13.795      1.000000
 P   1   1.00
     9.438       1.000000
 D   1   1.00
     19.016      1.000000
 D   1   1.00
     10.524       1.000000
 ****

